# Packages (lines beginning "#" are comments)
 &PACKAGES
 useMNC=.TRUE.,
 useDiagnostics=.TRUE.,
 useEXF=.TRUE.,
 useCAL=.TRUE.,
 useOBCS=.TRUE.,
 useGMRedi=.TRUE.,
 useKPP=.TRUE.,
 &
