# Packages (lines beginning "#" are comments)
 &PACKAGES
 useMNC=.FALSE.,
 useDiagnostics=.TRUE.,
 useEXF=.TRUE.,
 useCAL=.TRUE.,
 useOBCS=.TRUE.,
 useGGL90=.TRUE.,
 useRBCS=.FALSE.,
 &
