#
# *******************
# Calendar Parameters
# *******************
 &CAL_NML
 TheCalendar='gregorian',
 startDate_1=19400116,
 startDate_2=120000,
 # TheCalendar='model',
 # startDate_1=19400116,
 # startDate_2=000000,
 &
