# KPP parameters
 &KPP_PARM01
# KPPwriteState=.FALSE.
 &