# =====================================================================
# | Parameters for Gaspar et al. (1990)'s TKE vertical mixing scheme  |
# =====================================================================
 &GGL90_PARM01
 GGL90writeState=.FALSE.,
 mxlMaxFlag=1,
# GGL90TKEmin=1.E-8,
#GGL90ck=0.1,
#GGL90ceps = 0.7,
#GGL90m2 = 3.75,
 &