# Packages (lines beginning "#" are comments)
 &PACKAGES
 useMNC=.FALSE.,
 useDiagnostics=.TRUE.,
 useEXF=.TRUE.,
 useCAL=.TRUE.,
 useOBCS=.TRUE.,
 useGMRedi=.FALSE.,
 useKPP=.FALSE.,
 useGGL90=.TRUE.,
 &
